         156

 C   8.3657606741253687        9.1532178020764103        4.7989297265326227
 C   8.2697067412021017        10.589007775924406        4.7441806696950488
 H   9.1110088728599656        11.268803983581352        4.6610958430091749
 C   6.9393088380802999        10.905725150951337        4.7977531757025149
 H   6.4825661843794791        11.887765908652382        4.7717276084419282
 C   6.2103976638189433        9.6657300823878867        4.8884219831766806
 C   4.8111265339485643        9.5779952888901736        4.9834286940648678
 C   4.0386627643187802        10.859093306379425        4.9978653382721037
 C   3.7153867448087774        11.512390421524998        3.7960987165662736
 H   4.0332849134913822        11.079699775167322        2.8479263034934288
 C   2.9859440210661274        12.709025526523957        3.8170111734635053
 H   2.7213664878819266        13.197930380670913        2.8779820646616749
 C   2.5826125387026067        13.260412399839671        5.0407072014740759
 H   1.9827498276608737        14.169866490871845        5.0651196748460796
 C   2.9273031806399286        12.627377575496425        6.2410498190054016
 H   2.6092471674220374        13.058533665871122        7.1876253653038731
 C   3.6498175627693117        11.429928598482586        6.2214926838434881
 H   3.9193422198623691        10.937752434909777        7.1562036618741596
 N   7.0952030736348632        8.5958020721867374        4.8787684970355141
 C   4.0958862246413057        8.3730173520748430        5.0636323611205718
 C   2.6565723111606268        8.2802888954975771        5.0984224351915097
 H   1.9760952381346675        9.1242600458667038        5.1025692127320506
 C   2.3390315926200325        6.9499402342228001        5.1002453775401033
 H   1.3552913862816500        6.4942416025258272        5.1027050246540089
 C   3.5809824774240706        6.2177418876978345        5.0800503452665886
 C   3.6702148730612745        4.8200201583721487        5.0134400410896829
 C   2.3921912995540051        4.0448330079662425        4.9121155194604826
 C   2.0183022230581509        3.5085726023132100        3.6289426954107502
 H   2.6610275300053563        3.6687436585996838        2.7318277097278023
 C  0.82565934824562026        2.7871354906516888        3.5042278326683589
 H  0.54335929414771111        2.3740276018699200        2.5090740595143739
 C   1.0498541960865346E-002   2.5766924797960922        4.6613404364442710
 H -0.89409662023175462        1.9774926915519797        4.5732736255006232
 C  0.37377701085143750        3.1126204529485362        5.9387246156051097
 H -0.24980635650663030        2.9326191084004485        6.8420954302090475
 C   1.5537430716206702        3.8571197361581477        6.0652607525332014
 H   1.8288518837829795        4.2819598966781829        7.0600496660167309
 N   4.6530743632078995        7.1009307048766557        5.0630566200276492
 C   9.1393944072003528        4.8862335826258132        4.6970811614280032
 C   10.573224090720363        4.9786705782879048        4.5758457041084641
 H   11.250196168718487        4.1347059200077476        4.5088651042269703
 C   10.892627887103627        6.3078554623526495        4.5785201443059220
 H   11.874718648255101        6.7613355782203879        4.5105820386174411
 C   9.6550816122769660        7.0399519465040052        4.6851831582091652
 C   9.5714213984624461        8.4389070897397449        4.7276624482551748
 C   10.851420053660092        9.2114606187625157        4.7101497389338975
 C   11.648059859773207        9.2690251601960103        3.5125207615735170
 H   11.331558371263293        8.7475323992270457        2.5787982633397819
 C   12.838196206375477        10.007445778433498        3.5152317881707797
 H   13.434077811765993        10.069023505200398        2.5762564722956185
 C   13.251249270804365        10.671522670033548        4.7135115742010241
 H   14.163463950182704        11.266532436186251        4.7111334230193558
 C   12.478198161774850        10.590333978844376        5.9164752854383078
 H   12.797635051552357        11.116333686994993        6.8418308469372207
 C   11.277341436674559        9.8739732153828008        5.9138953144865578
 H   10.670288291460913        9.8118036441222465        6.8479824640494584
 N   8.5829898295593932        6.1585620437783000        4.7586003738202427
 C   4.8789692403793810        4.1097673988321404        4.9601531377508774
 C   4.9681853632779651        2.6724195982499186        4.9279949946846484
 H   4.1216116077307090        1.9947312139673854        4.9476711848878345
 C   6.2973226393363930        2.3522362164817014        4.8798331136317499
 H   6.7498253841984326        1.3684561054962971        4.8406419364901074
 C   7.0326117774711090        3.5917587541433584        4.8764460335886568
 C   8.4299953335081117        3.6768683868344043        4.7588074058063752
 C   9.2052594592453030        2.3998651628283612        4.6268535929246823
 C   9.4748426912707089        1.8805056299399969        3.3483414159423157
 H   9.1103977265364637        2.4054581572903562        2.4649177391167494
 C   10.205374722521393       0.69432510516980173        3.2068845538459314
 H   10.414931441642546       0.30350381482225175        2.2121551424154831
 C   10.677467640887004        1.9538356026603178E-002   4.3395304667441250
 H   11.271890668848766      -0.88782986919550388        4.2258293092662065
 C   10.405898230760954       0.52491719218298816        5.6190033107055486
 H   10.794427526536010        1.4521977193106481E-002   6.5018088587792784
 C   9.6676138368462379        1.7084078084956753        5.7610943163994826
 H   9.4507393706822942        2.1000465083505064        6.7548554177195284
 N   6.1527898754423154        4.6660055535092599        4.9421614909103795
 V   6.6527444181783535        6.6364177027294637        5.4199551505207033
 O   6.7512319172857866        6.6603335846394556        7.0170104928547552
 C   14.996865170866780        2.5222545492204236        9.6895686943509443
 C   14.900809502654083        3.9580505975743292        9.7443709563767857
 H   15.742127665579078        4.6378590135333226        9.8272224447207179
 C   13.570392999377701        4.2747313756747420        9.6913749437866006
 H   13.113629474179909        5.2567515476268172        9.7177249657317901
 C   12.841488289509092        3.0347048665384095        9.6010764524512151
 C   11.442206311349322        2.9468651225252587        9.5071420880160602
 C   10.669711330945718        4.2279524014653314        9.4926902590679365
 C   10.281854169197995        4.7993403677189637        8.2690099680114280
 H   10.552095878615473        4.3075559565742223        7.3343128409651781
 C   9.5593097111627348        5.9967677622297275        8.2493865967117106
 H   9.2419581528654948        6.4283008923820626        7.3027310055463417
 C   9.2137232811968701        6.6293032290225957        9.4497295218260700
 H   8.6138690476178574        7.5387565965849443        9.4252815239268095
 C   9.6161388087770412        6.0774026371198655        10.673474100808230
 H   9.3508862064324241        6.5659400385776863        11.612483391073745
 C   10.345500997834115        4.8807295513011590        10.694457250760374
 H   10.662705743133294        4.4476648145058100        11.642680253764485
 N   13.726314479039736        1.9648062833031381        9.6102724026084463
 C   10.727038699880094        1.7417971090735622        9.4279303248683703
 C   9.2877430761966853        1.6489631305164696        9.3938130136983098
 H   8.6072169932586036        2.4928974983591572        9.3897258553222631
 C   8.9702902112186305       0.31858724560533008        9.3921969528307869
 H   7.9865862824071350      -0.13718563975410636        9.3900502151615477
 C   10.212282257680512      -0.41352135541737078        9.4118274508393789
 C   10.301552332236010       -1.8112541073090496        9.4774016165751256
 C   9.0234962980997935       -2.5864107602621855        9.5783322125242467
 C   8.1868113019970608       -2.7761993904046993        8.4247866620127017
 H   8.4633789820176002       -2.3529918146834938        7.4300717147326560
 C   7.0066339823172878       -3.5203891824280329        8.5508755995104995
 H   6.3842754268652087       -3.7018179162919749        7.6472917072661257
 C   6.6415572331158774       -4.0542033628524097        9.8281811409318092
 H   5.7368449333868838       -4.6532527036226616        9.9159468143337257
 C   7.4550353682640438       -3.8418140710781703        10.985634887412964
 H   7.1713479850551698       -4.2533006155003248        11.980723895187328
 C   8.6477392346088777       -3.1204151676343770        10.861384956708513
 H   9.2891042951237370       -2.9586403264038066        11.758777978613105
 N   11.284322416452959       0.46973381587748481        9.4284432700819689
 C   15.770721657265497       -1.7447416139250811        9.7921975344791896
 C   17.204566576778223       -1.6521709366042301        9.9133540553370327
 H   17.881602618004624       -2.4960788754234495        9.9805415523964758
 C   17.523873921099117      -0.32296681029711755        9.9102007958619929
 H   18.505933139274276       0.13061612976508494        9.9778820810251574
 C   16.286260371659523       0.40902395690230203        9.8034528176345290
 C   16.202551295349942        1.8079775373144793        9.7606324059406226
 C   17.482556620825786        2.5805909675171801        9.7777699617623703
 C   17.907300378628268        3.2445085646596405        8.5736552642791377
 H   17.299400410345374        3.1832629797548058        7.6395232417641132
 C   19.108167240515396        3.9609119731964637        8.5707831351314407
 H   19.426692214538591        4.4880091780028524        7.6452109305151668
 C   19.882372295989388        4.0407351578921826        9.7737752930632276
 H   20.794571924750290        4.6357850207768996        9.7759438527670994
 C   19.470460486243507        3.3752975552581836        10.972399212658267
 H   20.067220945624193        3.4359014050307382        11.911395647780067
 C   18.280337096566495        2.6368113460293063        10.975451469537459
 H   17.964685895578196        2.1143094720868802        11.909459944131831
 N   15.214215195630633      -0.47244625811217783        9.7303375156017360
 C   11.510286853613886       -2.5215367751011470        9.5296995906262261
 C   11.599581702408621       -3.9588885647922458        9.5615440267650609
 H   10.753037270531019       -4.6366246231959192        9.5419412618310844
 C   12.928754031066001       -4.2789811697592786        9.6096470668661187
 H   13.381335191851626       -5.2627268755644714        9.6487682247384186
 C   13.663971897268722       -3.0394015183528209        9.6131732620069172
 C   15.061405088076850       -2.9541758073774464        9.7307846304050525
 C   15.836714337438446       -4.2311428254223280        9.8633524929341352
 C   16.299602447969747       -4.9230248343907173        8.7295354474461693
 H   16.083233940465576       -4.5317101655607077        7.7354958129441052
 C   17.037726650120057       -6.1065961117017045        8.8723747476150354
 H   17.426644612358086       -6.6173247734300489        7.9898845361404565
 C   17.308647388732737       -6.6115651100131076        10.152206498701466
 H   17.902926291125933       -7.5190028544625251        10.266545885594828
 C   16.836041288459153       -5.9363302310038026        11.284431325270061
 H   17.045054413642433       -6.3268804814426369        12.279413097263697
 C   16.105629429376869       -4.7501216773980213        11.142222882589056
 H   15.740729381838456       -4.2248353624597215        12.025308615728450
 N   12.784076474056542       -1.9652261034175198        9.5476939877076319
 V   13.283568370313432        5.2755385726128467E-003   9.0697358262145151
 O   13.380505282240819        2.8957814448756638E-002   7.4725929990783131
