78
 
 C        8.4470799999999997        9.1870999999999974        4.8570099999999998     
 C        8.3630499999999994        10.620729999999998        4.8550599999999999     
 H        9.0786199999999972        11.214750000000000        4.8610300000000013     
 C        7.0537300000000007        10.946120000000001        4.8433299999999999     
 H        6.6994200000000008        11.805850000000000        4.8261999999999992     
 C        6.3096900000000007        9.7196099999999994        4.8618999999999994     
 C        4.9148600000000000        9.6448199999999975        4.8384400000000003     
 C        4.1478100000000007        10.921099999999999        4.8570099999999998     
 C        3.7810699999999997        11.529199999999998        3.6496100000000009     
 H        4.0346699999999993        11.148809999999997        2.8393899999999999     
 C        3.0478699999999987        12.690549999999998        3.6652499999999990     
 H        2.7969699999999986        13.090669999999998        2.8644099999999990     
 C        2.6772600000000004        13.271219999999998        4.8794999999999993     
 H        2.1865099999999988        14.060889999999995        4.8919200000000007     
 C        3.0304800000000003        12.686540000000001        6.0145599999999995     
 H        2.7747000000000006        13.060119999999996        6.8271399999999991     
 C        3.7864299999999993        11.513150000000000        5.9979399999999998     
 H        4.0455799999999993        11.132080000000000        6.8060000000000000     
 N        7.1798999999999999        8.6576699999999995        4.8521299999999989     
 C        4.1924999999999981        8.4470799999999997        4.8570099999999998     
 C        2.7588699999999990        8.3630499999999994        4.8550599999999999     
 H        2.1648500000000008        9.0786199999999972        4.8610300000000013     
 C        2.4334799999999999        7.0537299999999998        4.8433299999999999     
 H        1.5737500000000002        6.6994199999999999        4.8261999999999992     
 C        3.6599900000000019        6.3096899999999998        4.8618999999999994     
 C        3.7347800000000007        4.9148599999999991        4.8384400000000003     
 C        2.4585000000000017        4.1478099999999998        4.8570099999999998     
 C        1.8504000000000003        3.7810699999999988        3.6496100000000009     
 H        2.2307899999999998        4.0346700000000011        2.8393899999999999     
 C        0.68904999999999894        3.0478700000000010        3.6652499999999990     
 H        0.28892999999999924        2.7969700000000008        2.8644099999999990     
 C        0.10837000000000049        2.6772599999999995        4.8794999999999993     
 H        -0.68128999999999973        2.1865100000000011        4.8919200000000007     
 C        0.69305999999999979        3.0304799999999994        6.0145599999999995     
 H        0.31948000000000104        2.7746999999999997        6.8271399999999991     
 C        1.8664499999999988        3.7864300000000011        5.9979399999999998     
 H        2.2475200000000002        4.0455800000000011        6.8060000000000000     
 N        4.7219300000000004        7.1798999999999991        4.8521299999999989     
 C        9.1870999999999974        4.9325200000000011        4.8570099999999998     
 C        10.620729999999998        5.0165500000000005        4.8550599999999999     
 H        11.214750000000000        4.3009799999999991        4.8610300000000013     
 C        10.946120000000001        6.3258700000000001        4.8433299999999999     
 H        11.805850000000000        6.6801800000000000        4.8261999999999992     
 C        9.7196099999999994        7.0699100000000001        4.8618999999999994     
 C        9.6448199999999975        8.4647400000000008        4.8384400000000003     
 C        10.921099999999999        9.2317900000000002        4.8570099999999998     
 C        11.529199999999998        9.5985300000000020        3.6496100000000009     
 H        11.148809999999997        9.3449299999999980        2.8393899999999999     
 C        12.690549999999998        10.331730000000000        3.6652499999999990     
 H        13.090669999999998        10.582630000000000        2.8644099999999990     
 C        13.271219999999998        10.702339999999998        4.8794999999999993     
 H        14.060889999999995        11.193090000000000        4.8919200000000007     
 C        12.686540000000001        10.349119999999997        6.0145599999999995     
 H        13.060119999999996        10.604900000000001        6.8271399999999991     
 C        11.513150000000000        9.5931700000000024        5.9979399999999998     
 H        11.132080000000000        9.3340199999999989        6.8060000000000000     
 N        8.6576699999999995        6.1997000000000009        4.8521299999999989     
 C        4.9325200000000011        4.1924999999999999        4.8570099999999998     
 C        5.0165500000000005        2.7588700000000013        4.8550599999999999     
 H        4.3009799999999991        2.1648500000000004        4.8610300000000013     
 C        6.3258700000000001        2.4334799999999994        4.8433299999999999     
 H        6.6801800000000000        1.5737499999999998        4.8261999999999992     
 C        7.0699100000000001        3.6599900000000014        4.8618999999999994     
 C        8.4647400000000008        3.7347800000000002        4.8384400000000003     
 C        9.2317900000000002        2.4585000000000012        4.8570099999999998     
 C        9.5985300000000020        1.8504000000000000        3.6496100000000009     
 H        9.3449299999999980        2.2307899999999994        2.8393899999999999     
 C        10.331730000000000       0.68904999999999872        3.6652499999999990     
 H        10.582630000000000       0.28892999999999908        2.8644099999999990     
 C        10.702339999999998       0.10837000000000033        4.8794999999999993     
 H        11.193090000000000      -0.68128999999999984        4.8919200000000007     
 C        10.349119999999997       0.69305999999999957        6.0145599999999995     
 H        10.604900000000001       0.31948000000000087        6.8271399999999991     
 C        9.5931700000000024        1.8664499999999986        5.9979399999999998     
 H        9.3340199999999989        2.2475199999999997        6.8060000000000000     
 N        6.1997000000000009        4.7219300000000004        4.8521299999999989     
 V        6.6898000000000000        6.6898000000000000        5.4113499999999997     
 O        6.6897999999999973        6.6898000000000000        7.0411100000000006     
